[TITLE]
;;Project Title/Notes
Stable model without LIDs. Also stable for 100-yr SCS Type 2 Storm.

[OPTIONS]
;;Option            	Value
FLOW_UNITS          	CFS
INFILTRATION        	GREEN_AMPT
FLOW_ROUTING        	DYNWAVE
LINK_OFFSETS        	DEPTH
MIN_SLOPE           	0
ALLOW_PONDING       	YES
SKIP_STEADY_STATE   	NO

START_DATE          	01/01/2000
START_TIME          	00:00:00
REPORT_START_DATE   	01/01/2000
REPORT_START_TIME   	00:00:00
END_DATE            	01/02/2000
END_TIME            	15:00:00
SWEEP_START         	01/01
SWEEP_END           	12/31
DRY_DAYS            	0
REPORT_STEP         	00:30:00
WET_STEP            	00:00:06
DRY_STEP            	02:00:00
ROUTING_STEP        	0:30:00 
RULE_STEP           	00:00:00

INERTIAL_DAMPING    	FULL
NORMAL_FLOW_LIMITED 	FROUDE
FORCE_MAIN_EQUATION 	H-W
VARIABLE_STEP       	0.75
LENGTHENING_STEP    	0
MIN_SURFAREA        	100
MAX_TRIALS          	8
HEAD_TOLERANCE      	0.005
SYS_FLOW_TOL        	5
LAT_FLOW_TOL        	5
MINIMUM_STEP        	0.5
THREADS             	4

[EVAPORATION]
;;Data Source   	Parameters
;;--------------	----------------
CONSTANT        	0
DRY_ONLY        	NO

[RAINGAGES]
;;Name          	Format   	Interval	SCF     	Source    
;;--------------	---------	------	------	----------
GAGE1           	INTENSITY	00:06:00	1.0     	TIMESERIES	GAGE1           
Jan_25          	INTENSITY	1:00    	1.0     	TIMESERIES	Jan_25          
Raingage1       	CUMULATIVE	1:00    	1.0     	TIMESERIES	Timeseries1     
SCS_Type_II_1in 	CUMULATIVE	0:15    	1.0     	TIMESERIES	SCS_Type_II_1in 
SCS_Type_II_1in_12Hour	CUMULATIVE	0:06    	1.0     	TIMESERIES	SCS_Type_II_1in_12Hour
SCS_Type_II_1in_6Hour	CUMULATIVE	0:06    	1.0     	TIMESERIES	SCS_Type_II_1in_6Hour
SCS_Type_II_2in 	CUMULATIVE	0:15    	1.0     	TIMESERIES	SCS_Type_II_2in 

[SUBCATCHMENTS]
;;Name          	Rain Gage       	Outlet          	Area    	%Imperv 	Width   	%Slope  	CurbLen 	SnowPack        
;;--------------	----------------	----------------	--------	--------	--------	--------	--------	----------------
70151           	SCS_Type_II_1in 	1015            	57.94   	15.598  	1300    	10.5    	0       	                
70191           	SCS_Type_II_1in 	1019            	58.545  	11.426  	1350    	8.8     	0       	                
70231           	SCS_Type_II_1in 	1023            	11.95   	55.296  	600     	3.4     	0       	                
70291           	SCS_Type_II_1in 	1029            	7.03    	40.311  	300     	4.7     	0       	                
70311           	SCS_Type_II_1in 	1031            	8.114   	57.214  	500     	2.3     	0       	                
70531           	SCS_Type_II_1in 	1053            	25.588  	16.089  	450     	4.5     	0       	                
70571           	SCS_Type_II_1in 	1057            	26.944  	37.746  	1249.999	3.4     	0       	                
70731           	SCS_Type_II_1in 	1073            	40.582  	31.961  	860     	4.1     	0       	                
70751           	SCS_Type_II_1in 	1075            	19.529  	37.816  	750     	2.9     	0       	                
70771           	SCS_Type_II_1in 	1077            	5.934   	29.14   	375     	5.7     	0       	                
70851           	SCS_Type_II_1in 	1085            	20.632  	20.782  	550     	10      	0       	                
70951           	SCS_Type_II_1in 	1095            	22.652  	23.646  	1100    	6       	0       	                
71051           	SCS_Type_II_1in 	1105            	15.566  	32.096  	750     	5.1     	0       	                
71171           	SCS_Type_II_1in 	1117            	49.705  	37.388  	1250    	6.1     	0       	                
71191           	SCS_Type_II_1in 	1119            	32.956  	42.975  	850     	13.4    	0       	                
71231           	SCS_Type_II_1in 	1123            	15.949  	43.705  	550     	5.7     	0       	                
71251           	SCS_Type_II_1in 	1125            	13.022  	27.298  	500     	4.5     	0       	                
71271           	SCS_Type_II_1in 	1127            	12.081  	58.155  	600     	4.3     	0       	                
71341           	SCS_Type_II_1in 	1134            	7.256   	35.306  	500     	2.5     	0       	                
71361           	SCS_Type_II_1in 	1136            	7.509   	49.393  	550     	2.5     	0       	                
71391           	SCS_Type_II_1in 	1139            	34.858  	35.136  	1000    	9.4     	0       	                
71461           	SCS_Type_II_1in 	1146            	19.704  	29.112  	700     	4.8     	0       	                
71491           	SCS_Type_II_1in 	1149            	12.69   	41.864  	500     	1.1     	0       	                
71541           	SCS_Type_II_1in 	1154            	22.514  	59.21   	1000    	4.4     	0       	                
71611           	SCS_Type_II_1in 	1161            	14.805  	34.805  	550     	6       	0       	                
71651           	SCS_Type_II_1in 	1165            	13.817  	24.982  	900     	3.1     	0       	                
71661           	SCS_Type_II_1in 	1166            	35.762  	39.752  	600     	3.3     	0       	                
71771           	SCS_Type_II_1in 	1177            	22.183  	27.547  	600     	6.2     	0       	                
71911           	SCS_Type_II_1in 	1191            	54.831  	23.797  	950     	7.4     	0       	                
71981           	SCS_Type_II_1in 	1198            	31.035  	37.362  	600     	4.8     	0       	                
71991           	SCS_Type_II_1in 	1199            	18.981  	23.737  	600     	5.2     	0       	                
72021           	SCS_Type_II_1in 	1202            	17.843  	20.036  	550     	5.2     	0       	                
72031           	SCS_Type_II_1in 	1203            	15.548  	69.717  	700     	2.9     	0       	                
72051           	SCS_Type_II_1in 	1205            	20.277  	28.145  	850     	9.6     	0       	                
72061           	SCS_Type_II_1in 	1206            	21.278  	57.858  	650     	5       	0       	                
72071           	SCS_Type_II_1in 	1207            	15.693  	22.264  	1750.001	7.4     	0       	                
72091           	SCS_Type_II_1in 	1209            	29.591  	70.99   	1800.001	4       	0       	                
72121           	SCS_Type_II_1in 	1212            	31.278  	20.769  	1350    	7.5     	0       	                
72161           	SCS_Type_II_1in 	1216            	29.462  	10.812  	900     	2.7     	0       	                
72191           	SCS_Type_II_1in 	1219            	14.473  	73.515  	750     	3.8     	0       	                
72231           	SCS_Type_II_1in 	1223            	25.199  	72.422  	1150    	3       	0       	                
72241           	SCS_Type_II_1in 	1224            	40.616  	19.242  	1000    	7.1     	0       	                
72261           	SCS_Type_II_1in 	1226            	170.26  	11.867  	2600    	11.2    	0       	                
72311           	SCS_Type_II_1in 	1231            	123.188 	19.531  	2000    	8       	0       	                
72331           	SCS_Type_II_1in 	1233            	19.463  	23.87   	800     	7.5     	0       	                
72371           	SCS_Type_II_1in 	1237            	46.32   	35.562  	950     	4.6     	0       	                
72391           	SCS_Type_II_1in 	1239            	23.656  	31.139  	1100    	6.5     	0       	                
72411           	SCS_Type_II_1in 	1241            	54.022  	14.105  	2150    	3       	0       	                
72421           	SCS_Type_II_1in 	1242            	14.65   	29.991  	350     	6.4     	0       	                
72551           	SCS_Type_II_1in 	1255            	38.268  	25.246  	1000    	7.4     	0       	                
72591           	SCS_Type_II_1in 	1259            	21.359  	24.798  	850     	5.2     	0       	                
72631           	SCS_Type_II_1in 	1263            	21.856  	43.946  	1200    	3.8     	0       	                
72671           	SCS_Type_II_1in 	1267            	23.225  	29.089  	700     	5.2     	0       	                
72731           	SCS_Type_II_1in 	1273            	21.913  	53.046  	750     	3.6     	0       	                
72781           	SCS_Type_II_1in 	1278            	37.878  	32.151  	900     	7.8     	0       	                
72901           	SCS_Type_II_1in 	1290            	53.293  	17.733  	2100    	9       	0       	                
72951           	SCS_Type_II_1in 	1295            	40.99   	23.486  	1949.999	15      	0       	                
73001           	SCS_Type_II_1in 	1300            	92.254  	30.946  	1800    	4.3     	0       	                
73081           	SCS_Type_II_1in 	1308            	35.16   	35.628  	1600    	4.6     	0       	                
73121           	SCS_Type_II_1in 	1312            	34.02   	48.41   	350     	4.4     	0       	                
73171           	SCS_Type_II_1in 	1317            	15.553  	57.681  	1100    	3.5     	0       	                
73181           	SCS_Type_II_1in 	1318            	14.372  	68.871  	300     	3.1     	0       	                
73201           	SCS_Type_II_1in 	1320            	21.183  	53.624  	650     	2.2     	0       	                
73211           	SCS_Type_II_1in 	1321            	30.595  	32.347  	800     	5.8     	0       	                
73271           	SCS_Type_II_1in 	1327            	36.308  	19.906  	1250    	5.5     	0       	                
73301           	SCS_Type_II_1in 	1330            	31.68   	45.839  	500     	3.4     	0       	                
73321           	SCS_Type_II_1in 	1332            	14.447  	69.448  	650     	2.4     	0       	                
73341           	SCS_Type_II_1in 	1334            	15.939  	17.521  	750     	9.2     	0       	                
73391           	SCS_Type_II_1in 	1339            	17.503  	21.519  	1600.001	13      	0       	                
73401           	SCS_Type_II_1in 	1340            	49.999  	24.894  	1150    	5       	0       	                
73421           	SCS_Type_II_1in 	1342            	15.446  	74.942  	1400.001	2.8     	0       	                
73461           	SCS_Type_II_1in 	1346            	16.255  	75.242  	1000    	1.2     	0       	                
73501           	SCS_Type_II_1in 	1350            	157.631 	35.226  	1700    	4.4     	0       	                
73531           	SCS_Type_II_1in 	1353            	15.557  	69.352  	650     	5       	0       	                
73551           	SCS_Type_II_1in 	1355            	13.848  	68.462  	650     	3.3     	0       	                
73571           	SCS_Type_II_1in 	1357            	8.463   	68.637  	350     	1.1     	0       	                
73601           	SCS_Type_II_1in 	1360            	495.297 	38.123  	2800    	2.2     	0       	                
73602           	SCS_Type_II_1in 	1360            	386.494 	48.209  	2950    	3       	0       	                
73631           	SCS_Type_II_1in 	1363            	70.386  	15.409  	2400    	14      	0       	                
73661           	SCS_Type_II_1in 	1366            	18.667  	20.076  	750     	5.5     	0       	                
73671           	SCS_Type_II_1in 	1367            	20.142  	23.104  	999.999 	5.1     	0       	                
73691           	SCS_Type_II_1in 	1369            	17.755  	32.133  	700     	7.4     	0       	                
73751           	SCS_Type_II_1in 	1375            	48.949  	18.336  	1150    	10      	0       	                
73811           	SCS_Type_II_1in 	1381            	32.509  	22.791  	1000    	7.6     	0       	                
73841           	SCS_Type_II_1in 	1384            	30.225  	20.229  	1350    	9.8     	0       	                
73871           	SCS_Type_II_1in 	1387            	24.172  	19.5    	950     	7.6     	0       	                
73911           	SCS_Type_II_1in 	1391            	37.183  	15.216  	1500    	8.1     	0       	                

[SUBAREAS]
;;Subcatchment  	N-Imperv  	N-Perv    	S-Imperv  	S-Perv    	PctZero   	RouteTo   	PctRouted 
;;--------------	----------	----------	----------	----------	----------	----------	----------
70151           	0.011     	0.3       	0.1       	0.2       	25        	OUTLET    
70191           	0.011     	0.3       	0.1       	0.2       	25        	OUTLET    
70231           	0.011     	0.3       	0.1       	0.2       	25        	OUTLET    
70291           	0.011     	0.3       	0.1       	0.2       	25        	OUTLET    
70311           	0.011     	0.3       	0.1       	0.2       	25        	OUTLET    
70531           	0.011     	0.3       	0.1       	0.2       	25        	OUTLET    
70571           	0.011     	0.3       	0.1       	0.2       	25        	OUTLET    
70731           	0.011     	0.3       	0.1       	0.2       	25        	OUTLET    
70751           	0.011     	0.3       	0.1       	0.2       	25        	OUTLET    
70771           	0.011     	0.3       	0.1       	0.2       	25        	OUTLET    
70851           	0.011     	0.3       	0.1       	0.2       	25        	OUTLET    
70951           	0.011     	0.3       	0.1       	0.2       	25        	OUTLET    
71051           	0.011     	0.3       	0.1       	0.2       	25        	OUTLET    
71171           	0.011     	0.3       	0.1       	0.2       	25        	OUTLET    
71191           	0.011     	0.3       	0.1       	0.2       	25        	OUTLET    
71231           	0.011     	0.3       	0.1       	0.2       	25        	OUTLET    
71251           	0.011     	0.3       	0.1       	0.2       	25        	OUTLET    
71271           	0.011     	0.3       	0.1       	0.2       	25        	OUTLET    
71341           	0.011     	0.3       	0.1       	0.2       	25        	OUTLET    
71361           	0.011     	0.3       	0.1       	0.2       	25        	OUTLET    
71391           	0.011     	0.3       	0.1       	0.2       	25        	OUTLET    
71461           	0.011     	0.3       	0.1       	0.2       	25        	OUTLET    
71491           	0.011     	0.3       	0.1       	0.2       	25        	OUTLET    
71541           	0.011     	0.3       	0.1       	0.2       	25        	OUTLET    
71611           	0.011     	0.3       	0.1       	0.2       	25        	OUTLET    
71651           	0.011     	0.3       	0.1       	0.2       	25        	OUTLET    
71661           	0.011     	0.3       	0.1       	0.2       	25        	OUTLET    
71771           	0.011     	0.3       	0.1       	0.2       	25        	OUTLET    
71911           	0.011     	0.3       	0.1       	0.2       	25        	OUTLET    
71981           	0.011     	0.3       	0.1       	0.2       	25        	OUTLET    
71991           	0.011     	0.3       	0.1       	0.2       	25        	OUTLET    
72021           	0.011     	0.3       	0.1       	0.2       	25        	OUTLET    
72031           	0.011     	0.3       	0.1       	0.2       	25        	OUTLET    
72051           	0.011     	0.3       	0.1       	0.2       	25        	OUTLET    
72061           	0.011     	0.3       	0.1       	0.2       	25        	OUTLET    
72071           	0.011     	0.3       	0.1       	0.2       	25        	OUTLET    
72091           	0.011     	0.3       	0.1       	0.2       	25        	OUTLET    
72121           	0.011     	0.3       	0.1       	0.2       	25        	OUTLET    
72161           	0.011     	0.3       	0.1       	0.2       	25        	OUTLET    
72191           	0.011     	0.3       	0.1       	0.2       	25        	OUTLET    
72231           	0.011     	0.3       	0.1       	0.2       	25        	OUTLET    
72241           	0.011     	0.3       	0.1       	0.2       	25        	OUTLET    
72261           	0.011     	0.3       	0.1       	0.2       	25        	OUTLET    
72311           	0.011     	0.3       	0.1       	0.2       	25        	OUTLET    
72331           	0.011     	0.3       	0.1       	0.2       	25        	OUTLET    
72371           	0.011     	0.3       	0.1       	0.2       	25        	OUTLET    
72391           	0.011     	0.3       	0.1       	0.2       	25        	OUTLET    
72411           	0.011     	0.3       	0.1       	0.2       	25        	OUTLET    
72421           	0.011     	0.3       	0.1       	0.2       	25        	OUTLET    
72551           	0.011     	0.3       	0.1       	0.2       	25        	OUTLET    
72591           	0.011     	0.3       	0.1       	0.2       	25        	OUTLET    
72631           	0.011     	0.3       	0.1       	0.2       	25        	OUTLET    
72671           	0.011     	0.3       	0.1       	0.2       	25        	OUTLET    
72731           	0.011     	0.3       	0.1       	0.2       	25        	OUTLET    
72781           	0.011     	0.3       	0.1       	0.2       	25        	OUTLET    
72901           	0.011     	0.3       	0.1       	0.2       	25        	OUTLET    
72951           	0.011     	0.3       	0.1       	0.2       	25        	OUTLET    
73001           	0.011     	0.3       	0.1       	0.2       	25        	OUTLET    
73081           	0.011     	0.3       	0.1       	0.2       	25        	OUTLET    
73121           	0.011     	0.3       	0.1       	0.2       	25        	OUTLET    
73171           	0.011     	0.3       	0.1       	0.2       	25        	OUTLET    
73181           	0.011     	0.3       	0.1       	0.2       	25        	OUTLET    
73201           	0.011     	0.3       	0.1       	0.2       	25        	OUTLET    
73211           	0.011     	0.3       	0.1       	0.2       	25        	OUTLET    
73271           	0.011     	0.3       	0.1       	0.2       	25        	OUTLET    
73301           	0.011     	0.3       	0.1       	0.2       	25        	OUTLET    
73321           	0.011     	0.3       	0.1       	0.2       	25        	OUTLET    
73341           	0.011     	0.3       	0.1       	0.2       	25        	OUTLET    
73391           	0.011     	0.3       	0.1       	0.2       	25        	OUTLET    
73401           	0.011     	0.3       	0.1       	0.2       	25        	OUTLET    
73421           	0.011     	0.3       	0.1       	0.2       	25        	OUTLET    
73461           	0.011     	0.3       	0.1       	0.2       	25        	OUTLET    
73501           	0.011     	0.3       	0.1       	0.2       	25        	OUTLET    
73531           	0.011     	0.3       	0.1       	0.2       	25        	OUTLET    
73551           	0.011     	0.3       	0.1       	0.2       	25        	OUTLET    
73571           	0.011     	0.3       	0.1       	0.2       	25        	OUTLET    
73601           	0.011     	0.3       	0.1       	0.2       	25        	OUTLET    
73602           	0.011     	0.3       	0.1       	0.2       	25        	OUTLET    
73631           	0.011     	0.3       	0.1       	0.2       	25        	OUTLET    
73661           	0.011     	0.3       	0.1       	0.2       	25        	OUTLET    
73671           	0.011     	0.3       	0.1       	0.2       	25        	OUTLET    
73691           	0.011     	0.3       	0.1       	0.2       	25        	OUTLET    
73751           	0.011     	0.3       	0.1       	0.2       	25        	OUTLET    
73811           	0.011     	0.3       	0.1       	0.2       	25        	OUTLET    
73841           	0.011     	0.3       	0.1       	0.2       	25        	OUTLET    
73871           	0.011     	0.3       	0.1       	0.2       	25        	OUTLET    
73911           	0.011     	0.3       	0.1       	0.2       	25        	OUTLET    

[INFILTRATION]
;;Subcatchment  	Suction   	Ksat      	IMD       
;;--------------	----------	----------	----------
70151           	7.02      	0.28      	0.17      
70191           	5.53      	0.49      	0.2       
70231           	7.64      	0.13      	0.15      
70291           	8.19      	0.08      	0.15      
70311           	6.5       	0.24      	0.16      
70531           	5.85      	0.3       	0.17      
70571           	3.5       	0.52      	0.19      
70731           	3.63      	0.51      	0.19      
70751           	6.93      	0.2       	0.16      
70771           	8.22      	0.08      	0.15      
70851           	5.91      	0.35      	0.18      
70951           	8.22      	0.08      	0.15      
71051           	8.19      	0.08      	0.15      
71171           	4.23      	0.82      	0.24      
71191           	3.97      	0.71      	0.22      
71231           	3.5       	0.52      	0.19      
71251           	3.5       	0.52      	0.19      
71271           	4.27      	0.45      	0.19      
71341           	7.81      	0.12      	0.15      
71361           	8.22      	0.08      	0.15      
71391           	4.52      	0.43      	0.18      
71461           	7.52      	0.15      	0.15      
71491           	3.5       	0.52      	0.19      
71541           	7.32      	0.16      	0.15      
71611           	6.18      	0.27      	0.17      
71651           	3.89      	0.48      	0.19      
71661           	3.5       	0.52      	0.19      
71771           	5.8       	0.32      	0.17      
71911           	3.99      	0.72      	0.22      
71981           	3.5       	0.52      	0.19      
71991           	5.74      	0.34      	0.18      
72021           	4.04      	0.51      	0.19      
72031           	3.5       	0.52      	0.19      
72051           	6.94      	0.23      	0.17      
72061           	3.5       	0.52      	0.19      
72071           	5.58      	0.35      	0.18      
72091           	3.56      	0.52      	0.19      
72121           	6.73      	0.25      	0.17      
72161           	4.47      	0.44      	0.19      
72191           	4.43      	0.43      	0.18      
72231           	4.66      	0.41      	0.18      
72241           	4.36      	0.45      	0.19      
72261           	4.29      	0.84      	0.24      
72311           	4.3       	0.85      	0.24      
72331           	4.33      	0.86      	0.25      
72371           	4.33      	0.86      	0.25      
72391           	5.65      	0.32      	0.17      
72411           	4.88      	0.45      	0.19      
72421           	4.17      	0.79      	0.24      
72551           	3.61      	0.57      	0.2       
72591           	3.5       	0.52      	0.19      
72631           	5.5       	0.33      	0.17      
72671           	3.5       	0.52      	0.19      
72731           	4.36      	0.44      	0.18      
72781           	5.53      	0.35      	0.18      
72901           	6.06      	0.31      	0.17      
72951           	3.88      	0.49      	0.19      
73001           	3.96      	0.71      	0.22      
73081           	3.5       	0.52      	0.19      
73121           	3.61      	0.57      	0.2       
73171           	3.5       	0.52      	0.19      
73181           	3.5       	0.52      	0.19      
73201           	3.51      	0.52      	0.19      
73211           	5.15      	0.39      	0.18      
73271           	5.01      	0.4       	0.18      
73301           	3.93      	0.57      	0.2       
73321           	3.54      	0.52      	0.19      
73341           	4.03      	0.48      	0.19      
73391           	4.55      	0.43      	0.19      
73401           	4.11      	0.76      	0.23      
73421           	4.5       	0.44      	0.19      
73461           	3.5       	0.52      	0.19      
73501           	4.04      	0.73      	0.23      
73531           	4.63      	0.43      	0.18      
73551           	4.63      	0.43      	0.18      
73571           	3.5       	0.52      	0.19      
73601           	4.35      	0.72      	0.23      
73602           	4.25      	0.62      	0.21      
73631           	3.81      	0.54      	0.2       
73661           	3.5       	0.52      	0.19      
73671           	3.5       	0.52      	0.19      
73691           	3.68      	0.51      	0.19      
73751           	3.6       	0.52      	0.19      
73811           	3.5       	0.52      	0.19      
73841           	3.5       	0.52      	0.19      
73871           	3.5       	0.52      	0.19      
73911           	3.5       	0.52      	0.19      

[LID_CONTROLS]
;;Name          	Type/Layer	Parameters
;;--------------	----------	----------
barrels         	RB
barrels         	STORAGE   	42        	0.75      	10        	0         
barrels         	DRAIN     	1         	0         	0         	0         	0         	0         	          

BioRetention    	BC
BioRetention    	SURFACE   	12        	0.05      	0.1       	1.0       	5         
BioRetention    	SOIL      	48        	0.5       	0.2       	0.1       	0.5       	10.0      	3.5       
BioRetention    	STORAGE   	12        	0.75      	0.5       	0         
BioRetention    	DRAIN     	1         	0.5       	6         	6         	0         	0         	          
BioRetention    	REMOVALS  	TotalNitrogen	60        	TotalPhosphorus	50        

GrassSwale      	VS
GrassSwale      	SURFACE   	.5        	0.05      	0.1       	1.0       	1         

GreenRoof       	GR
GreenRoof       	SURFACE   	0.0       	0.1       	0.1       	1.0       	5         
GreenRoof       	SOIL      	6         	0.5       	0.2       	0.1       	0.5       	10.0      	3.5       
GreenRoof       	DRAINMAT  	1.5       	0.5       	0.1       

Micro-Bioretention	BC
Micro-Bioretention	SURFACE   	6         	0.05      	0         	0         	5         
Micro-Bioretention	SOIL      	36        	0.2       	0.12      	0.05      	12        	40        	10        
Micro-Bioretention	STORAGE   	21        	0.4       	0.5       	0         
Micro-Bioretention	DRAIN     	1         	0         	0         	6         	0         	0         	          
Micro-Bioretention	REMOVALS  	TotalNitrogen	60        	TotalPhosphorus	50        

PermeablePavement	PP
PermeablePavement	SURFACE   	0.0       	0.0       	0.1       	1.0       	5         
PermeablePavement	PAVEMENT  	6         	0.15      	0         	5         	0         	0         	0         
PermeablePavement	SOIL      	2         	0.5       	0.2       	0.1       	0.5       	10.0      	3.5       
PermeablePavement	STORAGE   	6         	0.75      	0.5       	0         
PermeablePavement	DRAIN     	1         	0.5       	6         	6         	0         	0         	          
PermeablePavement	REMOVALS  	TotalNitrogen	25        	TotalPhosphorus	25        

[LID_USAGE]
;;Subcatchment  	LID Process     	Number 	Area      	Width     	InitSat   	FromImp   	ToPerv    	RptFile                 	DrainTo         	FromPerv  
;;--------------	----------------	-------	----------	----------	----------	----------	----------	------------------------	----------------	----------
72591           	GreenRoof       	1      	0         	0         	0         	0         	0         	*                       	*               	0               
72591           	PermeablePavement	1      	0         	0         	0         	0         	0         	*                       	*               	0               
72591           	Micro-Bioretention	1      	0         	0         	0         	0         	0         	*                       	*               	0               
72591           	BioRetention    	1      	0         	0         	0         	0         	0         	*                       	*               	0               
72591           	GrassSwale      	1      	0         	6         	0         	0         	0         	*                       	*               	0               
72631           	GreenRoof       	1      	0         	0         	0         	0         	0         	*                       	*               	0               
72631           	PermeablePavement	1      	0         	0         	0         	0         	0         	*                       	*               	0               
72631           	Micro-Bioretention	1      	0         	0         	0         	0         	0         	*                       	*               	0               
72631           	BioRetention    	1      	0         	0         	0         	0         	0         	*                       	*               	0               
72631           	GrassSwale      	1      	0         	6         	0         	0         	0         	*                       	*               	0               
72671           	GreenRoof       	1      	0         	0         	0         	0         	0         	*                       	*               	0               
72671           	PermeablePavement	1      	0         	0         	0         	0         	0         	*                       	*               	0               
72671           	Micro-Bioretention	1      	0         	0         	0         	0         	0         	*                       	*               	0               
72671           	BioRetention    	1      	0         	0         	0         	0         	0         	*                       	*               	0               
72671           	GrassSwale      	1      	0         	6         	0         	0         	0         	*                       	*               	0               
72731           	GreenRoof       	1      	0         	0         	0         	0         	0         	*                       	*               	0               
72731           	PermeablePavement	1      	0         	0         	0         	0         	0         	*                       	*               	0               
72731           	Micro-Bioretention	1      	0         	0         	0         	0         	0         	*                       	*               	0               
72731           	BioRetention    	1      	0         	0         	0         	0         	0         	*                       	*               	0               
72731           	GrassSwale      	1      	0         	6         	0         	0         	0         	*                       	*               	0               
72781           	GreenRoof       	1      	0         	0         	0         	0         	0         	*                       	*               	0               